Circuit: * C:\Users\muzer\Documents\School\EEE3088F Project\Op-amp.asc

WARNING: Less than two connections to node VOUT.  This node is used by R5.
Direct Newton iteration for .op point succeeded.

Date: Wed May 12 11:17:33 2021
Total elapsed time: 0.131 seconds.

tnom = 27
temp = 27
method = modified trap
totiter = 156
traniter = 143
tranpoints = 61
accept = 56
rejected = 5
matrix size = 16
fillins = 5
solver = Normal
Matrix Compiler1: 798 bytes object code size  0.4/0.2/[0.1]
Matrix Compiler2: 1.29 KB object code size  0.2/0.3/[0.2]

