Circuit: * C:\Users\muzer\Documents\School\EEE3088F Project\LED Output.asc

Direct Newton iteration for .op point succeeded.

Date: Wed May 12 12:10:35 2021
Total elapsed time: 0.140 seconds.

tnom = 27
temp = 27
method = modified trap
totiter = 632
traniter = 622
tranpoints = 186
accept = 153
rejected = 33
matrix size = 40
fillins = 12
solver = Normal
Thread vector: 13.2/9.3[3] 3.1/2.1[3] 1.8/1.4[3] 0.3/0.8[1]  2592/500
Matrix Compiler1: 2.12 KB object code size  1.0/0.5/[0.3]
Matrix Compiler2: 3.47 KB object code size  0.5/0.7/[0.3]

