Circuit: * C:\Users\muzer\Documents\School\EEE3088F Project\Switching Power Supply.asc

Direct Newton iteration failed to find .op point.  (Use ".option noopiter" to skip.)
Starting Gmin stepping
Gmin = 10
Gmin = 1.07374
Gmin = 0.115292
Gmin = 0.0123794
Gmin = 0.00132923
Gmin = 0.000142725
Gmin = 1.5325e-005
Gmin = 1.6455e-006
Gmin = 1.76685e-007
Gmin = 1.89714e-008
Gmin = 2.03704e-009
Gmin = 2.18725e-010
Gmin = 2.34854e-011
Gmin = 2.52173e-012
Gmin = 2.70769e-013
Gmin = 0
Gmin stepping succeeded in finding the operating point.


Date: Wed May 12 10:23:06 2021
Total elapsed time: 34.340 seconds.

tnom = 27
temp = 27
method = modified trap
totiter = 4550797
traniter = 4550381
tranpoints = 1836794
accept = 1319537
rejected = 517257
matrix size = 20
fillins = 0
solver = Normal
Matrix Compiler1: 882 bytes object code size  0.4/0.2/[0.1]
Matrix Compiler2: off  [0.3]/0.3/0.3

